methanol.pdb
 OpenBabel07242014263D

  6  5  0  0  0  0  0  0  0  0999 V2000
    0.0000    0.0000    0.0000 C   0  0  0  0  0  0  0  0  0  0  0  0
   -0.3630    1.0280    0.0000 H   0  0  0  0  0  0  0  0  0  0  0  0
   -0.3630   -0.5140   -0.8900 H   0  0  0  0  0  0  0  0  0  0  0  0
   -0.3630   -0.5140    0.8900 H   0  0  0  0  0  0  0  0  0  0  0  0
    1.3800    0.0000    0.0000 O   0  0  0  0  0  0  0  0  0  0  0  0
    1.8030   -0.9060    0.0000 H   0  0  0  0  0  0  0  0  0  0  0  0
  1  2  1  0  0  0  0
  1  3  1  0  0  0  0
  1  4  1  0  0  0  0
  1  5  1  0  0  0  0
  5  6  1  0  0  0  0
M  END
$$$$
